Version 4
SHEET 1 880 680
WIRE 160 96 48 96
WIRE 288 96 224 96
WIRE 48 160 48 96
WIRE 288 160 288 96
WIRE 48 272 48 240
WIRE 192 272 48 272
WIRE 288 272 288 240
WIRE 288 272 192 272
WIRE 192 304 192 272
FLAG 192 304 0
SYMBOL res 272 144 R0
SYMATTR InstName R1
SYMATTR Value 1k
SYMBOL voltage 48 144 R0
WINDOW 123 24 124 Left 2
WINDOW 39 24 152 Left 2
SYMATTR InstName V1
SYMATTR Value SINE(0 5 1)
SYMATTR SpiceLine Rser=.1m
SYMBOL diode 160 112 R270
WINDOW 0 32 32 VTop 2
WINDOW 3 0 32 VBottom 2
SYMATTR InstName D1
SYMATTR Value 1N914
TEXT 14 328 Left 2 !.tran 0 5 0
