Version 4
SHEET 1 1148 680
WIRE -144 -1040 -176 -1040
WIRE 16 -1040 -144 -1040
WIRE 272 -1040 80 -1040
WIRE 336 -1040 272 -1040
WIRE -176 -944 -176 -1040
WIRE 336 -944 336 -1040
WIRE -176 -784 -176 -864
WIRE 176 -784 -176 -784
WIRE 336 -784 336 -864
WIRE 336 -784 176 -784
WIRE 176 -752 176 -784
FLAG 176 -752 0
FLAG -144 -1040 In
FLAG 272 -1040 Op
SYMBOL res 352 -960 M0
SYMATTR InstName R1
SYMATTR Value 1k
SYMBOL diode 16 -1024 R270
WINDOW 0 32 32 VTop 2
WINDOW 3 0 32 VBottom 2
SYMATTR InstName D1
SYMATTR Value 1N4148
SYMBOL voltage -176 -960 R0
WINDOW 3 -207 53 Left 2
WINDOW 123 0 0 Left 0
WINDOW 39 -233 -12 Left 2
SYMATTR InstName V1
SYMATTR Value SINE(0 10 5)
SYMATTR SpiceLine Rser=.1m Cpar=.1u
TEXT -128 -1144 Left 2 ;To Draw and Study Half Wave Rectifier
TEXT -160 -744 Left 2 !.tran 0 .5 0
